Circuit: * C:\Users\nstep\Desktop\stephensAD2\Draft4.asc

Direct Newton iteration for .op point succeeded.

Date: Sun Feb 16 20:07:11 2020
Total elapsed time: 0.170 seconds.

tnom = 27
temp = 27
method = trap
totiter = 3
traniter = 0
tranpoints = 0
accept = 0
rejected = 0
matrix size = 7
fillins = 0
solver = Normal
Matrix Compiler1: 276 bytes object code size
Matrix Compiler2: 487 bytes object code size
