Circuit: * C:\Users\nstep\dev\circuits1\ad1\ad1.asc

Direct Newton iteration for .op point succeeded.

Date: Fri Jan 17 08:45:53 2020
Total elapsed time: 0.266 seconds.

tnom = 27
temp = 27
method = modified trap
totiter = 2101
traniter = 2098
tranpoints = 1050
accept = 1050
rejected = 0
matrix size = 4
fillins = 0
solver = Normal
Matrix Compiler1: 118 bytes object code size  0.1/0.1/[0.1]
Matrix Compiler2: off  [0.1]/0.2/0.1

